Version 4
SHEET 1 1408 836
WIRE 464 -64 64 -64
WIRE 800 -64 464 -64
WIRE 720 -16 608 -16
WIRE 880 -16 720 -16
WIRE 1328 -16 1200 -16
WIRE 64 16 64 -64
WIRE 720 32 720 -16
WIRE 1200 32 1200 -16
WIRE 608 48 608 -16
WIRE 1328 48 1328 -16
WIRE 464 80 464 -64
WIRE 800 80 800 -64
WIRE 880 80 880 64
WIRE 880 80 800 80
WIRE 880 96 880 80
WIRE 64 144 64 96
WIRE 608 224 608 112
WIRE 720 224 720 112
WIRE 720 224 608 224
WIRE 736 224 720 224
WIRE 880 224 880 176
WIRE 880 224 736 224
WIRE 992 240 992 -32
WIRE 1088 240 1088 -32
WIRE 1200 240 1200 112
WIRE 1328 240 1328 128
WIRE 736 288 736 224
WIRE 288 336 48 336
WIRE 464 336 464 160
WIRE 464 336 352 336
WIRE 672 336 464 336
WIRE 464 400 464 336
WIRE 48 416 48 336
WIRE 736 480 736 384
WIRE 928 560 736 560
WIRE 736 624 736 560
WIRE 48 752 48 496
WIRE 464 752 464 480
WIRE 464 752 48 752
WIRE 736 752 736 704
WIRE 736 752 464 752
WIRE 928 752 928 624
WIRE 928 752 736 752
WIRE 736 816 736 752
FLAG 64 144 0
FLAG 736 816 0
FLAG 1200 240 0
FLAG 1328 240 0
SYMBOL voltage 64 0 R0
SYMATTR InstName V1
SYMATTR Value 12V
SYMBOL res 448 64 R0
SYMATTR InstName R1
SYMATTR Value 10k
SYMBOL cap 592 48 R0
SYMATTR InstName C
SYMATTR Value 140p
SYMBOL res 704 16 R0
SYMATTR InstName R
SYMATTR Value 100K
SYMBOL cap 352 320 R90
WINDOW 0 0 32 VBottom 2
WINDOW 3 32 32 VTop 2
SYMATTR InstName C1
SYMATTR Value 0.01µ
SYMBOL res 448 384 R0
SYMATTR InstName R2
SYMATTR Value 10k
SYMBOL res 720 464 R0
SYMATTR InstName R3
SYMATTR Value 510
SYMBOL res 720 608 R0
SYMATTR InstName R4
SYMATTR Value 510
SYMBOL cap 912 560 R0
SYMATTR InstName C2
SYMATTR Value 0.01µ
SYMBOL npn 672 288 R0
SYMATTR InstName Q1
SYMATTR Value 2N3904
SYMBOL voltage 48 400 R0
WINDOW 123 24 124 Left 2
WINDOW 39 0 0 Left 0
SYMATTR Value2 AC 0.1
SYMATTR InstName V2
SYMATTR Value SINE(0 0.1 10000k)
SYMBOL res 1312 32 R0
SYMATTR InstName R5
SYMATTR Value 100k
SYMBOL ind2 864 -32 R0
SYMATTR InstName L1
SYMATTR Value 5µ
SYMATTR Type ind
SYMBOL ind2 864 80 R0
SYMATTR InstName L2
SYMATTR Value 5µ
SYMATTR Type ind
SYMBOL ind2 1184 16 R0
SYMATTR InstName L3
SYMATTR Value 5µ
SYMATTR Type ind
TEXT 944 280 Left 2 !k  L1 L2  L3 1
TEXT 1096 712 Left 2 !.ac lin 500 1000K 20000K
